data_CP2K
_symmetry_space_group_name_H-M    'P1'
_symmetry_Int_Tables_number       1
_symmetry_cell_setting            triclinic
loop_
_symmetry_equiv_pos_as_xyz
  x,y,z
_cell_length_a                      20.000000000000004
_cell_length_b                      20.000000000000004
_cell_length_c                      20.000000000000004
_cell_angle_alpha                   90.0
_cell_angle_beta                    90.0
_cell_angle_gamma                   90.0
loop_
_atom_site_label
_atom_site_type_symbol
_atom_site_fract_x
_atom_site_fract_y
_atom_site_fract_z
La1  La  0.09176959999999998  0.037416749999999985  0.03438884999999999
La2  La  0.28659555  0.0007408499999999999  -0.00206385
O3  O  0.19292545  0.10458839999999997  0.01190745
O4  O  0.48189724999999994  -0.04511679999999999  0.09002765
O5  O  0.3990544499999999  0.017460749999999994  0.052487849999999996
O6  O  0.29456889999999986  0.11799269999999998  0.05236895
O7  O  0.026456999999999998  -0.012645999999999998  0.13537275
O8  O  0.10978584999999998  0.11328274999999999  0.13824344999999996
C9  C  0.23863379999999995  0.14166345  0.036180949999999996
C10  C  0.4299826999999999  -0.010580149999999998  0.10061865
C11  C  0.22540949999999993  0.21434534999999996  0.04340865
C12  C  0.40344549999999996  -0.0024357999999999997  0.169286
C13  C  0.3556590499999999  0.0466255  0.18188139999999997
H14  H  0.340316  0.07966389999999998  0.14193794999999998
C15  C  0.16529964999999996  0.24091179999999993  0.02059595
H16  H  0.12931665  0.2082529  -0.0029810999999999995
C17  C  0.4232250499999999  -0.0442479  0.2212982
H18  H  0.4604987499999999  -0.08214399999999998  0.21151404999999995
C19  C  0.15067259999999996  0.3080623999999999  0.028316249999999998
H20  H  0.10363724999999996  0.32780895  0.011083599999999999
C21  C  0.2576961  0.3242732  0.08128819999999999
H22  H  0.29409874999999996  0.35693924999999993  0.10446604999999998
C23  C  0.27199159999999994  0.2569892  0.07290545
H24  H  0.319333  0.23659244999999995  0.08926329999999999
C25  C  0.3274313499999999  0.05232229999999999  0.2444931
H26  H  0.2893023999999999  0.08968394999999998  0.25330899999999995
C27  C  0.19645715  0.35037919999999995  0.05974949999999999
C28  C  0.39521225  -0.03891369999999999  0.28458934999999996
H29  H  0.41008229999999996  -0.07178769999999998  0.3246007
C30  C  0.3462155999999999  0.009317799999999998  0.29618255
N31  N  0.10406874999999997  0.21771474999999993  0.18346109999999996
C32  C  0.06724259999999999  0.2799557  0.18835319999999997
H33  H  0.06286655  0.29523625  0.24047580000000002
H34  H  0.09207884999999999  0.3192549499999999  0.15979064999999998
H35  H  0.017292499999999995  0.2732467999999999  0.16770624999999997
C36  C  0.17115054999999993  0.21590505  0.2105119
H37  H  0.16958505  0.21928629999999996  0.26494464999999995
H38  H  0.19458074999999997  0.16912419999999995  0.19558935
H39  H  0.20011394999999996  0.25755714999999996  0.19066334999999998
C40  C  0.07946529999999999  0.16639094999999998  0.14900429999999998
H41  H  0.02924729999999999  0.17499979999999996  0.12965684999999996
O42  O  -0.03464979999999999  0.06595064999999999  0.00302355
O43  O  0.03782544999999999  0.14780889999999997  0.014531849999999997
C44  C  -0.020816299999999992  0.1282704  0.0008833
C45  C  -0.13821284999999997  0.16077459999999996  -0.027076250000000003
H46  H  -0.15313939999999998  0.10924284999999999  -0.02282965
C47  C  -0.07210844999999999  0.17865329999999996  -0.015279249999999998
C48  C  -0.18545399999999995  0.20878839999999996  -0.04199875
H49  H  -0.23644734999999995  0.19349840000000001  -0.05123934999999999
C50  C  -0.16781195  0.27621124999999996  -0.043552999999999994
C51  C  -0.05456799999999999  0.24604329999999996  -0.0179546
H52  H  -0.0031615999999999997  0.25984815  -0.008731
C53  C  -0.10151854999999999  0.2949147  -0.031688049999999995
H54  H  -0.08752649999999998  0.34684735  -0.0324779
O55  O  0.18903974999999995  -0.012156499999999997  0.09363724999999999
O56  O  0.27710834999999995  -0.07838454999999998  0.09641454999999997
C57  C  0.22720639999999992  -0.05315414999999998  0.12505354999999999
C58  C  0.21367139999999993  -0.06954664999999999  0.19546194999999997
C59  C  0.16468965  -0.03674134999999999  0.23242429999999997
H60  H  0.13628039999999997  0.0030023999999999993  0.20908505
C61  C  0.25295274999999995  -0.11791145  0.22648754999999998
H62  H  0.2919409499999999  -0.14180849999999998  0.19777209999999998
C63  C  0.15345094999999997  -0.05274874999999998  0.29896829999999996
H64  H  0.11526859999999998  -0.027813699999999997  0.3276242999999999
C65  C  0.19251019999999996  -0.10207314999999997  0.32942485
C66  C  0.2427132999999999  -0.1339019  0.2926239
H67  H  0.27383435  -0.17104204999999997  0.31660014999999997
O68  O  0.03463979999999999  -0.06716854999999998  0.0001104
O69  O  0.37764914999999993  0.017032699999999994  -0.09355234999999999
O70  O  0.2899166999999999  0.08291389999999998  -0.0990984
O71  O  0.37418995  -0.10045719999999998  -0.00978415
O72  O  0.27504199999999995  -0.11748594999999996  -0.054381799999999994
O73  O  0.09162119999999997  0.04869489999999999  -0.0933825
O74  O  0.17229354999999993  -0.014818699999999999  -0.05345604999999999
O75  O  -0.03390224999999999  -0.14984869999999997  -0.025097349999999997
C76  C  0.021906849999999995  -0.12985014999999997  -0.0039833
C77  C  0.13895344999999995  -0.16072194999999997  0.027619799999999996
H78  H  0.15402385000000002  -0.10962864999999995  0.019840049999999998
C79  C  0.07296989999999998  -0.17949539999999994  0.016383349999999998
C80  C  0.18637789999999996  -0.20746674999999995  0.04565085
H81  H  0.23726259999999993  -0.19132629999999995  0.05383824999999999
C82  C  0.16923079999999996  -0.2747886499999999  0.05146865
C83  C  0.05581164999999999  -0.24665364999999995  0.023645
H84  H  0.0046343  -0.26145194999999993  0.014565799999999999
C85  C  0.10292179999999998  -0.29436369999999995  0.04124285
H86  H  0.08897594999999998  -0.34613544999999996  0.04613495
C87  C  0.33071104999999995  -0.13939584999999996  -0.0350768
C88  C  0.34586374999999997  -0.21180785  -0.038864800000000005
C89  C  0.40420354999999997  -0.23624564999999995  -0.010191799999999999
H90  H  0.43770764999999995  -0.20185419999999996  0.014540299999999999
C91  C  0.42063449999999986  -0.30339279999999996  -0.013818399999999998
H92  H  0.4663226  -0.3216661999999999  0.007873149999999999
C93  C  0.31902329999999995  -0.323337  -0.07569970000000001
H94  H  0.2855134  -0.3574006999999999  -0.10110279999999999
C95  C  0.30282129999999996  -0.2562155499999999  -0.070952
H96  H  0.2567248  -0.23723889999999997  -0.09193864999999998
C97  C  0.3785926499999999  -0.3475375499999999  -0.04791
C98  C  0.34214144999999996  0.05995059999999998  -0.125716
C99  C  0.3608619999999999  0.08069709999999998  -0.1937803
C100  C  0.4190094999999999  0.0583575  -0.22495029999999996
H101  H  0.45434939999999985  0.027263699999999995  -0.19789099999999998
C102  C  0.31720115  0.12244734999999997  -0.22844944999999997
H103  H  0.27179184999999995  0.13843174999999996  -0.20397215
C104  C  0.433301  0.07703924999999998  -0.29027129999999995
H105  H  0.4784122999999999  0.0599484  -0.31427299999999997
C106  C  0.3890991499999999  0.11854004999999998  -0.32479604999999995
C107  C  0.33090549999999996  0.14105504999999996  -0.29332034999999995
H108  H  0.29587430000000003  0.1720207  -0.32051549999999995
C109  C  0.1423867  0.013054499999999997  -0.10326004999999999
C110  C  0.16995415  0.0035818999999999985  -0.17096765
C111  C  0.22149594999999994  -0.04198759999999999  -0.18166905
H112  H  0.23775644999999998  -0.07426259999999998  -0.14148785
C113  C  0.14802284999999998  0.04297444999999999  -0.22392259999999997
H114  H  0.10715634999999998  0.07731989999999998  -0.21542095
C115  C  0.2527353499999999  -0.045142449999999994  -0.24296429999999997
H116  H  0.29440444999999993  -0.07897179999999998  -0.24992869999999995
C117  C  0.178638  0.03979774999999999  -0.2860502
H118  H  0.16233329999999999  0.0710253  -0.32677500000000004
C119  C  0.23276495  -0.00323555  -0.29509545
H120  H  -0.20548994999999992  0.3141176  -0.05395875
H121  H  0.39990364999999983  0.13333079999999997  -0.37607274999999996
H122  H  0.20718144999999996  -0.31181044999999996  0.06387575000000001
H123  H  0.39195389999999986  -0.40009374999999986  -0.05282189999999999
H124  H  0.3227871499999999  0.013411199999999998  0.34516369999999996
H125  H  0.18389479999999997  -0.11561324999999999  0.381456
H126  H  0.25933285  -0.004142149999999999  -0.34261519999999995
H127  H  0.18466544999999998  0.4029839999999999  0.06739775
H128  H  -0.06064002905685445  -0.11113469527950935  -0.03751267298335113
H129  H  0.48408409695069093  -0.052429958968013966  0.04179608668605092
H130  H  0.0475534607242131  -0.04226747352323799  0.16706099580039027
H131  H  -0.01566007320713539  -0.03255656573511195  0.12318140866874049
