data_CP2K
_symmetry_space_group_name_H-M    'P1'
_symmetry_Int_Tables_number       1
_symmetry_cell_setting            triclinic
loop_
_symmetry_equiv_pos_as_xyz
  x,y,z
_cell_length_a                      9.44945429947991
_cell_length_b                      15.717788408291819
_cell_length_c                      16.86014793140462
_cell_angle_alpha                   101.53436281098243
_cell_angle_beta                    96.46351139844647
_cell_angle_gamma                   96.4637850293627
loop_
_atom_site_label
_atom_site_type_symbol
_atom_site_fract_x
_atom_site_fract_y
_atom_site_fract_z
Tb1  Tb  0.16580352172346144  0.03072136565691986  0.019549635569468732
Tb2  Tb  0.8692326528204005  0.9924933307846079  0.9843998675485983
Tb3  Tb  0.4903073252947089  0.0028880108786718296  -0.010774649631494854
O1  O  0.04560922615953166  0.9374183786153472  0.9583666772727442
O2  O  0.9585038202760892  0.08827713239993397  0.06990171125827717
O3  O  0.6299074689533929  -0.01192631346558647  0.9047428434262205
O4  O  0.3642151198441772  1.010813929721737  0.09493788715488659
O5  O  0.3346884179149397  0.09640390041208252  -0.0001195477407072702
O6  O  0.6520661187843959  0.9016954138951071  0.9829352358624199
O7  O  0.8522441442977458  0.937416012249745  0.08065169267316434
O8  O  0.13698094700884897  0.06634690919108813  0.9073420942571973
O9  O  0.7222988677861862  0.03416558693269898  0.049453328674401935
O10  O  0.25565473810750633  0.9600041396108843  0.9367222214327995
O11  O  0.46473771555278426  0.07061109070716172  0.9041801453565202
O12  O  0.542042078463988  0.932652988590987  0.09987711784548771
O13  O  0.5508000866455185  0.10878223556863377  0.0646159201365835
O14  O  0.4206531809270298  0.882334369017555  0.9597384037293714
O15  O  0.09879186149493274  0.020335518621857437  0.15671827244648526
O16  O  0.859962546662614  0.9890193333406042  0.889723046657061
H1  H  0.1587010640881409  0.9745167154461664  0.15108699686376376
H2  H  0.05523312983291136  1.0146571561656406  0.09670585726871216
H3  H  0.9628156130348267  -0.005878403314846663  0.8878035422846481
O17  O  0.8591290634370681  0.8524978195981863  0.9522777167872107
O18  O  0.14113315363343726  0.1544199067742914  0.035338854120011
O19  O  0.26694480972182416  0.13313382080398078  0.16072359012034249
O20  O  0.6869932565969535  0.8506362149873068  0.8319017780222846
C1  C  -0.008765295533038023  0.8719104892120594  0.9912777352155693
C2  C  1.0045237049160096  0.12999794746843263  0.01702147519146719
C3  C  0.45036167499987195  0.15176200024825048  0.04726647570444293
C4  C  0.5351091514689666  0.8512487390091621  0.9611353861644104
C5  C  0.7805249536331542  -0.0003854049920227873  0.10398255496810431
C6  C  0.209120650786789  1.002294210970322  0.8882222928736865
C7  C  0.5592505688732357  0.03456282877203865  0.8682924708270614
C8  C  0.4488581820538476  0.9737192036927553  0.1388349426121493
C9  C  0.45212698808626356  0.24092827258062804  0.05380301854271676
C10  C  0.5412660719558763  0.757115481960703  0.9477294003193718
O21  O  0.7252624784328925  0.9835008121189319  0.48859020292052774
O22  O  0.2710144975851939  0.016990540758133173  0.5153474872355803
C11  C  0.22088433196547486  0.8401912996026705  0.03785314160923138
C12  C  0.7710947747619346  0.15731633692960187  0.9637213429907807
H4  H  0.25853730624283305  0.9082581440154416  0.036861909658362946
H5  H  0.7332347519127402  0.09063720797687391  0.9658913813069631
C13  C  0.7678025125900931  0.028123556290121768  0.18845604599688046
C14  C  0.23153984161381125  0.973424312360825  0.8061459157541943
C15  C  0.07542472413026338  0.8104293443523716  0.010519406319326335
C16  C  0.9195233206442951  0.18496713229523465  0.9855438106511342
C17  C  0.6888467816961298  0.09639014523810925  0.2102445191633815
C18  C  0.3278250691832981  0.9133911623223052  0.793060125420456
H6  H  0.6507524993623591  0.12952689897448713  0.16394442559770644
H7  H  0.3827095324026658  0.8944866653084255  0.8450896816407776
C19  C  0.3043392181209446  0.7805270275774047  0.06044364709579778
C20  C  0.6923640744893883  0.21864079106374248  0.9431354170711664
H8  H  0.41839726633110597  0.7984662485811854  0.0768797064221898
H9  H  0.5779974056096601  0.20354999558244086  0.9268759536082484
N1  N  0.3434246883948628  0.6387995897084945  0.07982896804897421
N2  N  0.6634068942541151  0.36461408734085743  0.9276238613243142
H10  H  0.4463828968705393  0.6603235833713252  0.07665216971086874
H11  H  0.5592066048424854  0.3383805619119298  0.9124272514216503
C21  C  0.5841014871885005  0.05321418843679621  0.7887020721040082
C22  C  0.4230418031199193  0.957109190800689  0.21536182738996631
N3  N  0.4320331938747984  0.51128682833027  0.0807580473849899
N4  N  0.5764133543844947  0.4922492454024374  0.9198406721502181
H12  H  0.526429135363417  0.549503033116886  0.08591899549836343
H13  H  0.48338998181910425  0.4520737126071498  0.9003223087611214
C23  C  0.6842227882005552  0.015039011484806332  0.7439685202573044
C24  C  0.34195573308071464  1.0071165327499079  0.26788197324383567
H14  H  0.7529820295638697  0.9760979793013308  0.7719875195658445
H15  H  0.28847790401550255  0.05689805986868229  0.24737898141098974
C25  C  0.3326375969225219  0.2723603201993003  0.015562976297107319
C26  C  0.6665874741561856  0.7316012314051249  0.9799807803231395
H16  H  0.2510209031635774  0.22569606384442545  -0.023948444732379715
H17  H  0.7506709959701399  0.7814401649816629  1.0135518279331803
C27  C  0.2485111355190841  0.6944885182421119  0.05931140090008999
C28  C  0.7542601857794682  0.3078950611100983  0.9463841622260845
C29  C  0.8171961358068476  0.9818159424187213  0.24584954053993074
C30  C  0.17349827942618593  0.01353899991231247  0.7468567702776368
H18  H  0.8750734882597163  0.9278285724059839  0.22589270481640633
H19  H  0.10842763522340912  0.06427633913207464  0.7651188032409356
C31  C  0.0198276128214406  0.7229725646584276  0.009075183598836132
C32  C  0.98211253373979  0.2761511166103206  0.9927504751298626
H20  H  0.9097719344169621  0.7009505149585038  0.9863902566283672
H21  H  0.09043626081068054  0.2974529374652127  0.021387519960268275
N5  N  0.6020718624718413  0.09085734579019125  0.5502737973700907
N6  N  0.40977193642292575  0.9191098902527032  0.45529655455023377
H22  H  0.5247750641796617  0.12522554110058162  0.5329082281313985
H23  H  0.486837050693892  0.8841301492309395  0.4713956958270783
C33  C  0.3217207185702261  0.3595672100208653  0.028174511757011755
C34  C  0.6817160256496195  0.6444372914552322  0.970022593133928
H24  H  0.22614790992013323  0.38261747895264353  0.004830444684920455
H25  H  0.7791322395359596  0.6232089661508129  0.9923151692679716
C35  C  0.49482988031933073  0.10452602229005643  0.7535345498096548
C36  C  0.49491161812772416  0.894482572396953  0.24718200810873028
H26  H  0.4148189513346184  0.13145687393482086  0.7878867246418718
H27  H  0.5609764011376348  0.8572005113085847  0.2095504348710074
C37  C  0.6927904059456004  0.02595500715177857  0.6649991516684293
C38  C  0.33272324371502376  0.9955302558903987  0.346049806710975
H28  H  0.768441140278936  0.9953215025837678  0.6297707999755243
H29  H  0.2700319701171748  0.03429028844776918  0.3848342771436615
C39  C  0.5616555663307502  0.3931607870214915  0.10036251698645443
C40  C  0.4386388212982123  0.6063236498860579  0.9031958748613732
H30  H  0.6522307401917793  0.4431048421601196  0.12581021184316687
H31  H  0.35052469863946834  0.554997277812038  0.8771644484643303
C41  C  0.5721698298598275  0.3054390657342961  0.09207819559814769
C42  C  0.4251282480544282  0.693951465690169  0.9108414739433867
H32  H  0.6721375313948406  0.28415972531065714  0.11134530834628013
H33  H  0.3255740089127859  0.7148806473997995  0.8902350230617109
C43  C  0.10345289337191041  0.6651182430879855  0.034261165562118584
C44  C  0.9012678422067193  0.3363338824581378  0.9729572951689062
H34  H  0.06227601066225109  0.5984026510073287  0.034469740055957473
H35  H  0.9428492736050698  0.4043086486203566  0.9804684932402565
C45  C  0.6560928834927806  0.11581917803450596  0.28852932619872584
C46  C  0.3608016835484097  0.8909174362078117  0.7154030042542316
H36  H  0.5861444078766799  0.16444374777563123  0.30385054814651735
H37  H  0.4408554510813696  0.8479885556789825  0.703554822365176
N7  N  0.6604373128219819  0.09175378103088906  0.42312413040747626
N8  N  0.3503503753896067  0.9104085342501481  0.5793749473134264
H38  H  0.6048546531506962  0.14302579251706982  0.4289376964674478
H39  H  0.416302399986006  0.8643903707177943  0.575025305503374
C47  C  0.4349095856909881  0.42168883294366366  0.07241433707954477
C48  C  0.5682933941545983  0.5809798005271353  0.9308088095003737
C49  C  0.7863091296269393  0.002473468278633035  0.32485903444104075
C50  C  0.20878578719569074  0.9919859712947999  0.6693457328317495
H40  H  0.8168483121336123  0.9659418875052886  0.37007067874699046
H41  H  0.17390307934588162  0.023861865199380473  0.6212851938432079
C51  C  0.3111077518713013  0.5509886017525844  0.07663678440934192
C52  C  0.6922276246760725  0.4547803949996567  0.9460038705829098
C53  C  0.6679700244842918  0.049170212941814034  0.48681434070589613
C54  C  0.3380402844363419  0.9545348227557936  0.5161365794123409
C55  C  0.6013047875965509  0.07564791067461869  0.6289793744695117
C56  C  0.40804202100044334  0.9350360919874976  0.3766690654245123
C57  C  0.7022011962673321  0.06880774582659632  0.34588117061614915
C58  C  0.3036791334958166  0.9308100621681541  0.6542519023866536
C59  C  0.5027477126730543  0.11492305283661511  0.6747210876526551
C60  C  0.4891935624687824  0.8853633921143172  0.32584698156965775
H42  H  0.42791963433799896  0.14934180632283744  0.6444750929685505
H43  H  0.5508646869712496  0.8410755610618492  0.3515491843721981
N9  N  0.279509883308126  0.27337233401628636  0.2315775840335205
N10  N  0.7217659343497684  0.7220129754961447  0.75581929576612
C61  C  0.2154046861899591  0.3513059178379992  0.2599256858167649
C62  C  0.8082072171279011  0.6617314351369432  0.7167922690947627
H44  H  0.2466256571403672  0.3733177166360513  0.32604731515051866
H45  H  0.7699624904837357  0.6430685427897981  0.6511347910701465
H46  H  0.2546062333698928  0.4036648477036669  0.23058791018308786
H47  H  0.7995125530222267  0.6024530271717143  0.7415327805914391
H48  H  0.09938291104835607  0.3380371154612051  0.24627322081566866
H49  H  0.9193461083321585  0.6919107753370123  0.7266605784073881
C63  C  0.4333721526286981  0.2871934982329422  0.2526643658512446
C64  C  0.5725795944415911  0.6876026576608417  0.7463700424258854
H50  H  0.46036427212615627  0.3032442975063352  0.31921496962790197
H51  H  0.5310652471281162  0.665290943768033  0.681556343308095
H52  H  0.47561510766835796  0.22884555922108846  0.22525858076381358
H53  H  0.516598373958922  0.7391051857646754  0.775633711926003
H54  H  0.47664043860718946  0.34229159936347775  0.22832546232957543
H55  H  0.5603334932572119  0.6323194416633761  0.7762683250818355
C65  C  0.20837244666449334  0.19803074443166893  0.18793162822341442
C66  C  0.7689844283333808  0.8030186087408951  0.801795251806656
H56  H  0.09289930886300438  0.19351567568467046  0.17532864864643724
H57  H  0.8852630867960353  0.8224112106651091  0.810945475649733
O23  O  0.1901815116081509  0.5109862338349884  0.07138016046405195
O24  O  0.8068335944936349  0.497229474511508  0.9802337073701684
